data_H2O
_symmetry_space_group_name_H-M   P6_3cm
_cell_length_a   7.60356630
_cell_length_b   7.60356630
_cell_length_c   7.14296200
_cell_angle_alpha   90.00000000
_cell_angle_beta   90.00000000
_cell_angle_gamma   120.00000000
_symmetry_Int_Tables_number   185
_chemical_formula_structural   H2O
_chemical_formula_sum   'H24 O12'
_cell_volume   357.63798996
_cell_formula_units_Z   12
loop_
 _symmetry_equiv_pos_site_id
 _symmetry_equiv_pos_as_xyz
  1  'x, y, z'
  2  'x-y, x, z+1/2'
  3  '-y, x-y, z'
  4  '-x, -y, z+1/2'
  5  '-x+y, -x, z'
  6  'y, -x+y, z+1/2'
  7  'y, x, z'
  8  'x, x-y, z+1/2'
  9  'x-y, -y, z'
  10  '-y, -x, z+1/2'
  11  '-x, -x+y, z'
  12  '-x+y, y, z+1/2'
loop_
 _atom_site_type_symbol
 _atom_site_label
 _atom_site_symmetry_multiplicity
 _atom_site_fract_x
 _atom_site_fract_y
 _atom_site_fract_z
 _atom_site_occupancy
  H  H0  12  0.12245500  0.33628400  0.47884700  1
  H  H1  6  0.00000000  0.33082300  0.19642800  1
  H  H2  6  0.00000000  0.45234700  0.01064600  1
  O  O3  6  0.00000000  0.32664200  0.05565800  1
  O  O4  6  0.00000000  0.33939500  0.42957500  1
